ModelCases/RTS24_PCM_multizone4_congested_feb_1month_case/output/power_price_decomposition_nodal.csv
Bus,Zone,State,Hour,LMP,Energy,Congestion,Loss
1,Z1,TS,1,18.04044816158845,18.04044816158845,0.0,0.0
1,Z1,TS,2,35.0,35.0,0.0,0.0
1,Z1,TS,3,35.0,35.0,0.0,0.0
1,Z1,TS,4,34.999999999999986,34.999999999999986,0.0,0.0
1,Z1,TS,5,34.99999999999998,34.99999999999998,0.0,0.0
1,Z1,TS,6,35.0,35.0,0.0,0.0
1,Z1,TS,7,27.30320279295438,27.30320279295438,0.0,0.0
1,Z1,TS,8,27.303202792954387,27.303202792954387,0.0,0.0
1,Z1,TS,9,27.30320279295439,27.30320279295439,0.0,0.0
1,Z1,TS,10,27.303202792954394,27.303202792954394,0.0,0.0
1,Z1,TS,11,27.3032027929544,27.3032027929544,0.0,0.0
1,Z1,TS,12,28.668575802358237,28.668575802358237,0.0,0.0
1,Z1,TS,13,27.41076576302877,27.41076576302877,0.0,0.0
1,Z1,TS,14,27.888511902111237,27.888511902111237,0.0,0.0
1,Z1,TS,15,27.888511902111244,27.888511902111244,0.0,0.0
1,Z1,TS,16,27.744949542721447,27.744949542721447,0.0,0.0
1,Z1,TS,17,35.0,35.0,0.0,0.0
1,Z1,TS,18,35.94222567031414,35.94222567031414,0.0,0.0
1,Z1,TS,19,35.94222567031413,35.94222567031413,0.0,0.0
1,Z1,TS,20,35.94222567031414,35.94222567031414,0.0,0.0
1,Z1,TS,21,35.94222567031414,35.94222567031414,0.0,0.0
1,Z1,TS,22,35.94222567031413,35.94222567031413,0.0,0.0
1,Z1,TS,23,35.94222567031413,35.94222567031413,0.0,0.0
1,Z1,TS,24,35.0,35.0,0.0,0.0
1,Z1,TS,25,35.0,35.0,0.0,0.0
1,Z1,TS,26,35.00000000000001,35.00000000000001,0.0,0.0
1,Z1,TS,27,35.0,35.0,0.0,0.0
1,Z1,TS,28,35.0,35.0,0.0,0.0
1,Z1,TS,29,34.99999999999999,34.99999999999999,0.0,0.0
1,Z1,TS,30,35.0,35.0,0.0,0.0
1,Z1,TS,31,27.3032027929544,27.3032027929544,0.0,0.0
1,Z1,TS,32,27.303202792954405,27.303202792954405,0.0,0.0
1,Z1,TS,33,27.30320279295441,27.30320279295441,0.0,0.0
1,Z1,TS,34,27.30320279295442,27.30320279295442,0.0,0.0
1,Z1,TS,35,27.23833254033094,27.23833254033094,0.0,0.0
1,Z1,TS,36,28.482406992116022,28.482406992116022,0.0,0.0
1,Z1,TS,37,27.39201043249777,27.39201043249777,0.0,0.0
1,Z1,TS,38,27.733402747975433,27.733402747975433,0.0,0.0
1,Z1,TS,39,27.733402747975433,27.733402747975433,0.0,0.0
1,Z1,TS,40,27.705448730904468,27.705448730904468,0.0,0.0
1,Z1,TS,41,35.0,35.0,0.0,0.0
1,Z1,TS,42,35.94222567031414,35.94222567031414,0.0,0.0
1,Z1,TS,43,35.94222567031414,35.94222567031414,0.0,0.0
1,Z1,TS,44,35.94222567031414,35.94222567031414,0.0,0.0
1,Z1,TS,45,35.94222567031414,35.94222567031414,0.0,0.0
1,Z1,TS,46,35.94222567031414,35.94222567031414,0.0,0.0
1,Z1,TS,47,35.94222567031414,35.94222567031414,0.0,0.0
1,Z1,TS,48,35.0,35.0,0.0,0.0
1,Z1,TS,49,35.0,35.0,0.0,0.0
1,Z1,TS,50,35.000000000000014,35.000000000000014,0.0,0.0
1,Z1,TS,51,34.99999999999999,34.99999999999999,0.0,0.0
1,Z1,TS,52,35.0,35.0,0.0,0.0
1,Z1,TS,53,35.0,35.0,0.0,0.0
1,Z1,TS,54,35.0,35.0,0.0,0.0
1,Z1,TS,55,27.30320279295445,27.30320279295445,0.0,0.0
1,Z1,TS,56,27.30320279295445,27.30320279295445,0.0,0.0
1,Z1,TS,57,27.30320279295445,27.30320279295445,0.0,0.0
1,Z1,TS,58,27.30320279295445,27.30320279295445,0.0,0.0
1,Z1,TS,59,27.238332540330976,27.238332540330976,0.0,0.0
1,Z1,TS,60,28.482406992116058,28.482406992116058,0.0,0.0
1,Z1,TS,61,27.392010432497813,27.392010432497813,0.0,0.0
1,Z1,TS,62,27.733402747975486,27.733402747975486,0.0,0.0
1,Z1,TS,63,27.73340274797548,27.73340274797548,0.0,0.0
1,Z1,TS,64,27.705448730904514,27.705448730904514,0.0,0.0
1,Z1,TS,65,35.0,35.0,0.0,0.0
1,Z1,TS,66,35.94222567031414,35.94222567031414,0.0,0.0
1,Z1,TS,67,35.94222567031414,35.94222567031414,0.0,0.0
1,Z1,TS,68,35.94222567031414,35.94222567031414,0.0,0.0
1,Z1,TS,69,35.94222567031414,35.94222567031414,0.0,0.0
1,Z1,TS,70,35.94222567031414,35.94222567031414,0.0,0.0
1,Z1,TS,71,35.94222567031414,35.94222567031414,0.0,0.0
1,Z1,TS,72,35.0,35.0,0.0,0.0
1,Z1,TS,73,35.0,35.0,0.0,0.0
1,Z1,TS,74,34.99999999999999,34.99999999999999,0.0,0.0
1,Z1,TS,75,35.000000000000014,35.000000000000014,0.0,0.0
1,Z1,TS,76,35.0,35.0,0.0,0.0
1,Z1,TS,77,35.0,35.0,0.0,0.0
1,Z1,TS,78,35.0,35.0,0.0,0.0
1,Z1,TS,79,27.30320279295445,27.30320279295445,0.0,0.0
1,Z1,TS,80,27.30320279295445,27.30320279295445,0.0,0.0
1,Z1,TS,81,27.30320279295445,27.30320279295445,0.0,0.0
1,Z1,TS,82,27.30320279295445,27.30320279295445,0.0,0.0
1,Z1,TS,83,27.238332540330976,27.238332540330976,0.0,0.0
1,Z1,TS,84,27.30320279295445,27.30320279295445,0.0,0.0
1,Z1,TS,85,27.392010432497813,27.392010432497813,0.0,0.0
1,Z1,TS,86,27.73340274797548,27.73340274797548,0.0,0.0
1,Z1,TS,87,27.73340274797547,27.73340274797547,0.0,0.0
1,Z1,TS,88,27.705448730904514,27.705448730904514,0.0,0.0
1,Z1,TS,89,35.0,35.0,0.0,0.0
1,Z1,TS,90,35.94222567031414,35.94222567031414,0.0,0.0
1,Z1,TS,91,35.94222567031414,35.94222567031414,0.0,0.0
1,Z1,TS,92,35.94222567031414,35.94222567031414,0.0,0.0
1,Z1,TS,93,35.94222567031414,35.94222567031414,0.0,0.0
1,Z1,TS,94,35.94222567031413,35.94222567031413,0.0,0.0
1,Z1,TS,95,35.94222567031413,35.94222567031413,0.0,0.0
1,Z1,TS,96,35.0,35.0,0.0,0.0
1,Z1,TS,97,35.0,35.0,0.0,0.0
1,Z1,TS,98,35.0,35.0,0.0,0.0
1,Z1,TS,99,35.00000000000001,35.00000000000001,0.0,0.0
1,Z1,TS,100,35.0,35.0,0.0,0.0
1,Z1,TS,101,34.99999999999998,34.99999999999998,0.0,0.0
1,Z1,TS,102,34.99999999999997,34.99999999999997,0.0,0.0
1,Z1,TS,103,27.3032027929544,27.3032027929544,0.0,0.0
1,Z1,TS,104,27.303202792954405,27.303202792954405,0.0,0.0
1,Z1,TS,105,27.30320279295441,27.30320279295441,0.0,0.0
1,Z1,TS,106,27.30320279295442,27.30320279295442,0.0,0.0
1,Z1,TS,107,27.23833254033093,27.23833254033093,0.0,0.0
1,Z1,TS,108,27.303202792954426,27.303202792954426,0.0,0.0
1,Z1,TS,109,27.392010432497766,27.392010432497766,0.0,0.0
1,Z1,TS,110,27.733402747975425,27.733402747975425,0.0,0.0
1,Z1,TS,111,27.733402747975422,27.733402747975422,0.0,0.0
1,Z1,TS,112,27.705448730904468,27.705448730904468,0.0,0.0
1,Z1,TS,113,35.0,35.0,0.0,0.0
1,Z1,TS,114,35.94222567031414,35.94222567031414,0.0,0.0
1,Z1,TS,115,35.94222567031414,35.94222567031414,0.0,0.0
1,Z1,TS,116,35.94222567031414,35.94222567031414,0.0,0.0
1,Z1,TS,117,35.94222567031413,35.94222567031413,0.0,0.0
1,Z1,TS,118,35.94222567031414,35.94222567031414,0.0,0.0
1,Z1,TS,119,35.942225670314144,35.942225670314144,0.0,0.0
1,Z1,TS,120,35.0,35.0,0.0,0.0
1,Z1,TS,121,35.0,35.0,0.0,0.0
1,Z1,TS,122,34.99907829206016,34.99907829206016,0.0,0.0
1,Z1,TS,123,34.99907829206016,34.99907829206016,0.0,0.0
1,Z1,TS,124,34.898101176897605,34.898101176897605,0.0,0.0
1,Z1,TS,125,34.89240596560499,34.89240596560499,0.0,0.0
1,Z1,TS,126,34.94765853885326,34.94765853885326,0.0,0.0
1,Z1,TS,127,20.32343107678479,20.32343107678479,0.0,0.0
1,Z1,TS,128,20.323431076784793,20.323431076784793,0.0,0.0
1,Z1,TS,129,20.323431076784793,20.323431076784793,0.0,0.0
1,Z1,TS,130,20.192327170152257,20.192327170152257,0.0,0.0
1,Z1,TS,131,20.323431076784793,20.323431076784793,0.0,0.0
1,Z1,TS,132,20.32343107678479,20.32343107678479,0.0,0.0
1,Z1,TS,133,20.4074060531658,20.4074060531658,0.0,0.0
1,Z1,TS,134,20.585911334217855,20.585911334217855,0.0,0.0
1,Z1,TS,135,20.575921640488232,20.575921640488232,0.0,0.0
1,Z1,TS,136,20.575921640488232,20.575921640488232,0.0,0.0
1,Z1,TS,137,34.889474252627906,34.889474252627906,0.0,0.0
1,Z1,TS,138,35.1105257473721,35.1105257473721,0.0,0.0
1,Z1,TS,139,34.999999999999986,34.999999999999986,0.0,0.0
1,Z1,TS,140,34.99999999999999,34.99999999999999,0.0,0.0
1,Z1,TS,141,34.99999999999999,34.99999999999999,0.0,0.0
1,Z1,TS,142,35.0,35.0,0.0,0.0
1,Z1,TS,143,35.0,35.0,0.0,0.0
1,Z1,TS,144,35.0,35.0,0.0,0.0
1,Z1,TS,145,35.0,35.0,0.0,0.0
1,Z1,TS,146,35.0,35.0,0.0,0.0
1,Z1,TS,147,35.0,35.0,0.0,0.0
1,Z1,TS,148,34.89819789161437,34.89819789161437,0.0,0.0
1,Z1,TS,149,34.89324579073589,34.89324579073589,0.0,0.0
1,Z1,TS,150,34.98788129198958,34.98788129198958,0.0,0.0
1,Z1,TS,151,20.323431076784814,20.323431076784814,0.0,0.0
1,Z1,TS,152,20.323431076784814,20.323431076784814,0.0,0.0
1,Z1,TS,153,20.323431076784818,20.323431076784818,0.0,0.0
1,Z1,TS,154,20.323431076784814,20.323431076784814,0.0,0.0
1,Z1,TS,155,20.323431076784807,20.323431076784807,0.0,0.0
1,Z1,TS,156,20.323431076784814,20.323431076784814,0.0,0.0
1,Z1,TS,157,20.407406053165833,20.407406053165833,0.0,0.0
1,Z1,TS,158,20.57923474255459,20.57923474255459,0.0,0.0
1,Z1,TS,159,20.575921640488264,20.575921640488264,0.0,0.0
1,Z1,TS,160,20.575921640488264,20.575921640488264,0.0,0.0
1,Z1,TS,161,34.88771237813083,34.88771237813083,0.0,0.0
1,Z1,TS,162,35.94222567031413,35.94222567031413,0.0,0.0
1,Z1,TS,163,35.94222567031413,35.94222567031413,0.0,0.0
1,Z1,TS,164,35.94222567031413,35.94222567031413,0.0,0.0
1,Z1,TS,165,35.94222567031414,35.94222567031414,0.0,0.0
1,Z1,TS,166,35.0,35.0,0.0,0.0
1,Z1,TS,167,35.0,35.0,0.0,0.0
1,Z1,TS,168,35.000000000000014,35.000000000000014,0.0,0.0
1,Z1,TS,169,34.99999999999999,34.99999999999999,0.0,0.0
1,Z1,TS,170,35.0,35.0,0.0,0.0
1,Z1,TS,171,35.0,35.0,0.0,0.0
1,Z1,TS,172,35.0,35.0,0.0,0.0
1,Z1,TS,173,35.0,35.0,0.0,0.0
1,Z1,TS,174,35.0,35.0,0.0,0.0
1,Z1,TS,175,27.303202792954444,27.303202792954444,0.0,0.0
1,Z1,TS,176,27.303202792954444,27.303202792954444,0.0,0.0
1,Z1,TS,177,27.303202792954444,27.303202792954444,0.0,0.0
1,Z1,TS,178,27.303202792954444,27.303202792954444,0.0,0.0
1,Z1,TS,179,27.303202792954448,27.303202792954448,0.0,0.0
1,Z1,TS,180,27.303202792954448,27.303202792954448,0.0,0.0
1,Z1,TS,181,27.392010432497813,27.392010432497813,0.0,0.0
1,Z1,TS,182,27.73340274797548,27.73340274797548,0.0,0.0
1,Z1,TS,183,27.73340274797548,27.73340274797548,0.0,0.0
1,Z1,TS,184,27.70544873090453,27.70544873090453,0.0,0.0
1,Z1,TS,185,35.0,35.0,0.0,0.0
1,Z1,TS,186,35.94222567031412,35.94222567031412,0.0,0.0
1,Z1,TS,187,35.94222567031413,35.94222567031413,0.0,0.0
1,Z1,TS,188,35.94222567031414,35.94222567031414,0.0,0.0
1,Z1,TS,189,35.94222567031414,35.94222567031414,0.0,0.0
1,Z1,TS,190,35.94222567031414,35.94222567031414,0.0,0.0
1,Z1,TS,191,35.94222567031414,35.94222567031414,0.0,0.0
1,Z1,TS,192,35.0,35.0,0.0,0.0
1,Z1,TS,193,35.0,35.0,0.0,0.0
1,Z1,TS,194,35.0,35.0,0.0,0.0
1,Z1,TS,195,35.0,35.0,0.0,0.0
1,Z1,TS,196,35.0,35.0,0.0,0.0
1,Z1,TS,197,35.0,35.0,0.0,0.0
1,Z1,TS,198,35.00000000000001,35.00000000000001,0.0,0.0
1,Z1,TS,199,27.30320279295445,27.30320279295445,0.0,0.0
1,Z1,TS,200,27.30320279295445,27.30320279295445,0.0,0.0
...
